test/TEST190523/v_h6.csv
Bus, BasekV, Node1, Magnitude1, Angle1, pu1, Node2, Magnitude2, Angle2, pu2, Node3, Magnitude3, Angle3, pu3
"SOURCEBUS", 69, 1,    41794.2,   -0.4,    1.0491, 2,    41766.3, -120.5,    1.0484, 3,    41729.6,  119.6,    1.0475
"BUSMVMAI1", 12.8, 1,    7740.35,  -31.2,    1.0474, 2,    7742.01, -151.4,    1.0476, 3,     7716.1,   88.4,    1.0441
"BUSMVMAI136", 12.505, 1,    7740.31,  -31.2,    1.0721, 2,    7741.88, -151.4,    1.0723, 3,    7715.99,   88.4,    1.0687
"BUSMVMAI3", 12.505, 1,    7707.42,  -32.0,    1.0675, 2,    7634.32, -152.3,    1.0574, 3,    7628.54,   86.7,    1.0566
"BUSMVMAI2", 12.505, 1,    7707.33,  -32.0,    1.0675, 2,    7634.02, -152.3,    1.0573, 3,    7628.31,   86.7,    1.0566
"BUSMVMAI4", 12.505, 1,    7706.42,  -32.0,    1.0674, 2,       7631, -152.3,    1.0569, 3,    7625.93,   86.6,    1.0562
"BUSMVMAI46", 12.505, 1,    7707.46,  -32.0,    1.0675, 2,    7634.44, -152.3,    1.0574, 3,    7628.64,   86.7,    1.0566
"BUSMVMAI5", 12.505, 1,    7705.33,  -32.1,    1.0672, 2,    7627.96, -152.3,    1.0565, 3,    7623.47,   86.6,    1.0559
"BUSMVMAI862", 12.505, 1,    7706.41,  -32.0,    1.0674, 0, 0, 0, 0, 0, 0, 0, 0
"BUSMVMAI6", 12.505, 1,    7705.11,  -32.1,    1.0672, 2,     7627.4, -152.3,    1.0564, 3,    7623.04,   86.6,    1.0558
"BUSMVMAI859", 12.505, 3,    7623.43,   86.6,    1.0559, 0, 0, 0, 0, 0, 0, 0, 0
"BUSMVMAI860", 12.505, 3,    7623.47,   86.6,    1.0559, 0, 0, 0, 0, 0, 0, 0, 0
"BUSMVMAI7", 12.505, 1,    7703.77,  -32.1,     1.067, 2,       7625, -152.3,    1.0561, 3,    7620.79,   86.6,    1.0555
"BUSMVMAI8", 12.505, 1,    7703.75,  -32.1,     1.067, 2,    7621.11, -152.4,    1.0556, 3,    7619.25,   86.5,    1.0553
"BUSMVMAI9", 12.505, 1,    7703.77,  -32.1,     1.067, 2,       7625, -152.3,    1.0561, 3,    7620.79,   86.6,    1.0555
"BUSMVMAI10", 12.505, 1,    7702.99,  -32.1,    1.0669, 2,    7625.06, -152.3,    1.0561, 3,    7620.22,   86.6,    1.0554
"BUSMVMAI56", 12.505, 1,    7703.38,  -32.1,     1.067, 2,    7625.03, -152.3,    1.0561, 3,    7620.51,   86.6,    1.0555
"BUSMVMAI861", 12.505, 3,     7623.3,   86.6,    1.0559, 0, 0, 0, 0, 0, 0, 0, 0
"BUSMVMAI12", 12.505, 1,    7703.75,  -32.1,     1.067, 2,    7617.93, -152.4,    1.0551, 3,       7618,   86.5,    1.0551
"BUSMVMAI51", 12.505, 1,    7703.75,  -32.1,     1.067, 2,    7621.11, -152.4,    1.0556, 3,    7619.25,   86.5,    1.0553
"BUSMVMAI2171", 12.505, 1,    7703.75,  -32.1,     1.067, 0, 0, 0, 0, 0, 0, 0, 0
"BUSMVMAI863", 12.505, 3,    7623.21,   86.6,    1.0558, 0, 0, 0, 0, 0, 0, 0, 0
"BUSMVMAI2165", 12.505, 3,    7620.79,   86.6,    1.0555, 0, 0, 0, 0, 0, 0, 0, 0
"BUSMVMAI694", 12.505, 1,    7703.77,  -32.1,     1.067, 2,    7625.01, -152.3,    1.0561, 3,    7620.79,   86.6,    1.0555
"BUSMVMAI122", 12.505, 1,    7702.95,  -32.1,    1.0669, 2,    7625.07, -152.3,    1.0561, 3,    7620.19,   86.6,    1.0554
"BUSMVMAI11", 12.505, 1,    7703.74,  -32.1,     1.067, 2,    7617.93, -152.4,    1.0551, 3,    7618.01,   86.5,    1.0551
"BUSMVMAI13", 12.505, 1,    7703.74,  -32.1,     1.067, 2,     7617.9, -152.4,    1.0551, 3,    7618.01,   86.5,    1.0551
"BUSMVMAI18", 12.505, 1,    7703.75,  -32.1,     1.067, 2,    7616.76, -152.4,     1.055, 3,    7617.52,   86.5,    1.0551
"BUSMVMAI14", 12.505, 1,    7703.73,  -32.1,     1.067, 2,    7617.84, -152.4,    1.0551, 3,    7618.03,   86.5,    1.0551
"BUSMVMAI15", 12.505, 1,    7703.72,  -32.1,     1.067, 2,    7617.78, -152.4,    1.0551, 3,    7618.05,   86.5,    1.0551
"BUSMVMAI16", 12.505, 1,    7703.73,  -32.1,     1.067, 2,    7617.78, -152.4,    1.0551, 3,    7618.04,   86.5,    1.0551
"BUSMVMAI2166", 12.505, 2,    7617.77, -152.4,    1.0551, 0, 0, 0, 0, 0, 0, 0, 0
"BUSMVMAI2172", 12.505, 1,    7706.41,  -32.0,    1.0674, 0, 0, 0, 0, 0, 0, 0, 0
"BUSMVMAI864", 12.505, 3,    7623.13,   86.6,    1.0558, 0, 0, 0, 0, 0, 0, 0, 0
"BUSMVMAI865", 12.505, 3,    7623.01,   86.6,    1.0558, 0, 0, 0, 0, 0, 0, 0, 0
"BUSMVMAI17", 12.505, 1,    7703.73,  -32.1,     1.067, 2,    7617.78, -152.4,    1.0551, 3,    7618.04,   86.5,    1.0551
"BUSMVMAI695", 12.505, 1,    7703.73,  -32.1,     1.067, 2,    7617.78, -152.4,    1.0551, 3,    7618.04,   86.5,    1.0551
"BUSMVMAI866", 12.505, 3,    7623.01,   86.6,    1.0558, 0, 0, 0, 0, 0, 0, 0, 0
"BUSMVMAI2176", 12.505, 3,    7623.01,   86.6,    1.0558, 0, 0, 0, 0, 0, 0, 0, 0
"BUSMVMAI2177", 12.505, 3,    7622.99,   86.6,    1.0558, 0, 0, 0, 0, 0, 0, 0, 0
"BUSMVMAI2178", 12.505, 3,    7622.94,   86.6,    1.0558, 0, 0, 0, 0, 0, 0, 0, 0
"BUSMVMAI19", 12.505, 1,    7703.77,  -32.1,     1.067, 2,    7614.65, -152.4,    1.0547, 3,    7616.67,   86.4,    1.0549
"BUSMVMAI20", 12.505, 1,    7703.81,  -32.1,     1.067, 2,    7611.67, -152.4,    1.0542, 3,    7615.47,   86.4,    1.0548
"BUSMVMAI53", 12.505, 1,    7703.77,  -32.1,     1.067, 2,    7614.65, -152.4,    1.0547, 3,    7616.67,   86.4,    1.0549
"BUSMVMAI21", 12.505, 1,    7703.84,  -32.1,     1.067, 2,    7608.54, -152.4,    1.0538, 3,    7614.21,   86.4,    1.0546
"BUSMVMAI22", 12.505, 1,    7703.88,  -32.1,     1.067, 2,    7604.86, -152.5,    1.0533, 3,    7612.75,   86.3,    1.0544
"BUSMVMAI23", 12.505, 1,    7703.84,  -32.1,     1.067, 2,    7608.54, -152.4,    1.0538, 3,    7614.21,   86.4,    1.0546
"BUSMVMAI25", 12.505, 1,    7703.91,  -32.1,     1.067, 2,    7601.08, -152.5,    1.0528, 3,    7611.26,   86.3,    1.0542
"BUSMVMAI52", 12.505, 1,    7703.88,  -32.1,     1.067, 2,    7604.86, -152.5,    1.0533, 3,    7612.75,   86.3,    1.0544
"BUSMVMAI54", 12.505, 1,    7703.88,  -32.1,     1.067, 2,    7604.86, -152.5,    1.0533, 3,    7612.75,   86.3,    1.0544
"BUSMVMAI55", 12.505, 1,    7703.88,  -32.1,     1.067, 2,    7604.86, -152.5,    1.0533, 3,    7612.75,   86.3,    1.0544
"BUSMVMAI696", 12.505, 1,    7703.84,  -32.1,     1.067, 2,    7608.54, -152.4,    1.0538, 3,     7614.2,   86.4,    1.0546
"BUSMVMAI24", 12.505, 1,    7703.92,  -32.1,     1.067, 2,    7600.71, -152.5,    1.0527, 3,    7611.11,   86.3,    1.0542
"BUSMVMAI26", 12.505, 1,    7703.95,  -32.1,     1.067, 2,    7596.94, -152.5,    1.0522, 3,    7609.63,   86.2,     1.054
"BUSMVMAI49", 12.505, 1,    7703.91,  -32.1,     1.067, 2,    7601.08, -152.5,    1.0528, 3,    7611.26,   86.3,    1.0542
"BUSMVMAI50", 12.505, 1,    7703.91,  -32.1,     1.067, 2,    7601.08, -152.5,    1.0528, 3,    7611.25,   86.3,    1.0542
"BUSMVMAI27", 12.505, 1,    7703.92,  -32.1,     1.067, 2,    7596.96, -152.5,    1.0522, 3,    7609.62,   86.2,     1.054
"BUSMVMAI28", 12.505, 1,    7703.99,  -32.1,     1.067, 2,    7594.03, -152.5,    1.0518, 3,    7608.52,   86.2,    1.0538
"BUSMVMAI29", 12.505, 1,    7703.89,  -32.1,     1.067, 2,    7596.97, -152.5,    1.0522, 3,    7609.61,   86.2,     1.054
"BUSMVMAI31", 12.505, 1,    7704.04,  -32.1,     1.067, 2,    7590.67, -152.6,    1.0513, 3,    7607.22,   86.2,    1.0536
"BUSMVMAI30", 12.505, 1,    7703.85,  -32.1,     1.067, 2,       7597, -152.5,    1.0522, 3,    7609.59,   86.2,     1.054
"BUSMVMAI34", 12.505, 1,    7703.82,  -32.1,     1.067, 2,    7597.02, -152.5,    1.0522, 3,    7609.58,   86.2,     1.054
"BUSMVMAI867", 12.505, 1,    7703.97,  -32.1,     1.067, 0, 0, 0, 0, 0, 0, 0, 0
"BUSMVMAI43", 12.505, 1,    7704.05,  -32.1,     1.067, 2,    7590.59, -152.6,    1.0513, 3,     7607.2,   86.2,    1.0536
"BUSMVMAI871", 12.505, 2,    7590.67, -152.6,    1.0513, 0, 0, 0, 0, 0, 0, 0, 0
"BUSMVMAI33", 12.505, 1,    7704.07,  -32.1,     1.067, 2,    7589.62, -152.6,    1.0512, 3,    7606.84,   86.1,    1.0536
"BUSMVMAI32", 12.505, 1,    7704.16,  -32.1,    1.0671, 2,    7586.73, -152.6,    1.0508, 3,    7605.77,   86.1,    1.0534
"BUSMVMAI37", 12.505, 1,    7704.22,  -32.1,    1.0671, 2,    7582.77, -152.6,    1.0502, 3,    7604.36,   86.1,    1.0532
"BUSMVMAI44", 12.505, 1,    7704.05,  -32.1,     1.067, 2,    7590.51, -152.6,    1.0513, 3,    7607.17,   86.2,    1.0536
"BUSMVMAI35", 12.505, 1,    7703.82,  -32.1,     1.067, 2,    7597.02, -152.5,    1.0522, 3,    7609.57,   86.2,     1.054
"BUSMVMAI36", 12.505, 1,    7703.82,  -32.1,     1.067, 2,    7597.02, -152.5,    1.0522, 3,    7609.57,   86.2,     1.054
"BUSMVMAI869", 12.505, 1,    7703.97,  -32.1,     1.067, 0, 0, 0, 0, 0, 0, 0, 0
"BUSMVMAI38", 12.505, 1,    7704.28,  -32.1,    1.0671, 2,    7579.65, -152.6,    1.0498, 3,    7603.25,   86.0,    1.0531
"BUSMVMAI2181", 12.505, 1,    7704.21,  -32.1,    1.0671, 0, 0, 0, 0, 0, 0, 0, 0
"BUSMVMAI868", 12.505, 1,    7703.84,  -32.1,     1.067, 0, 0, 0, 0, 0, 0, 0, 0
"BUSMVMAI870", 12.505, 1,    7703.71,  -32.1,     1.067, 0, 0, 0, 0, 0, 0, 0, 0
"BUSMVMAI39", 12.505, 1,    7704.32,  -32.1,    1.0671, 2,    7579.62, -152.6,    1.0498, 3,    7603.17,   86.0,    1.0531
"BUSMVMAI40", 12.505, 1,    7704.27,  -32.2,    1.0671, 2,    7576.57, -152.6,    1.0494, 3,    7602.22,   86.0,    1.0529
"BUSMVMAI697", 12.505, 1,    7704.36,  -32.1,    1.0671, 2,    7579.64, -152.6,    1.0498, 3,    7602.95,   86.0,     1.053
"BUSMVMAI41", 12.505, 1,    7704.27,  -32.2,    1.0671, 2,    7573.04, -152.7,    1.0489, 3,       7601,   85.9,    1.0528
"BUSMVMAI42", 12.505, 1,    7704.32,  -32.2,    1.0671, 2,    7573.01, -152.7,    1.0489, 3,    7600.95,   85.9,    1.0528
"BUSMVMAI48", 12.505, 1,    7704.22,  -32.2,    1.0671, 2,    7570.13, -152.7,    1.0485, 3,    7600.04,   85.9,    1.0526
"BUSMVMAI303", 12.505, 1,    7704.25,  -32.2,    1.0671, 2,    7571.58, -152.7,    1.0487, 3,    7600.52,   85.9,    1.0527
"BUSMVMAI45", 12.505, 1,    7704.33,  -32.2,    1.0671, 2,    7573.01, -152.7,    1.0489, 3,    7600.92,   85.9,    1.0528
"BUSMVMAI701", 12.505, 1,    7704.34,  -32.2,    1.0671, 2,    7573.01, -152.7,    1.0489, 3,    7600.89,   85.9,    1.0528
"BUSMVMAI47", 12.505, 1,    7707.85,  -32.0,    1.0676, 2,    7635.77, -152.3,    1.0576, 3,    7629.69,   86.7,    1.0567
"BUSMVMAI179", 12.505, 1,    7707.65,  -32.0,    1.0675, 2,    7635.11, -152.3,    1.0575, 3,    7629.16,   86.7,    1.0567
"BUSMVMAI160", 12.505, 1,    7708.81,  -32.0,    1.0677, 2,    7638.97, -152.2,     1.058, 3,    7632.21,   86.8,    1.0571
"BUSMVMAI1103", 12.505, 1,    7704.11,  -32.2,    1.0671, 0, 0, 0, 0, 0, 0, 0, 0
"BUSMVMAI259", 12.505, 1,    7704.28,  -32.2,    1.0671, 2,    7568.62, -152.7,    1.0483, 3,    7599.62,   85.9,    1.0526
"BUSMVMAI304", 12.505, 1,    7704.22,  -32.2,    1.0671, 2,    7570.13, -152.7,    1.0485, 3,    7600.04,   85.9,    1.0526
"BUSMVMAI702", 12.505, 1,    7703.91,  -32.1,     1.067, 2,    7601.08, -152.5,    1.0528, 3,    7611.25,   86.3,    1.0542
"BUSMVMAI58", 12.505, 1,    7702.45,  -32.1,    1.0668, 2,     7625.1, -152.3,    1.0561, 3,    7619.83,   86.6,    1.0554
"BUSMVMAI57", 12.505, 1,    7700.61,  -32.1,    1.0666, 2,    7625.24, -152.3,    1.0561, 3,    7618.48,   86.6,    1.0552
"BUSMVMAI60", 12.505, 1,    7699.84,  -32.1,    1.0665, 2,     7625.3, -152.3,    1.0561, 3,    7617.92,   86.6,    1.0551
"BUSMVMAI703", 12.505, 1,    7700.61,  -32.1,    1.0666, 2,    7625.25, -152.3,    1.0561, 3,    7618.46,   86.6,    1.0552
"BUSMVMAI123", 12.505, 1,    7702.91,  -32.1,    1.0669, 2,    7625.07, -152.3,    1.0561, 3,    7620.16,   86.6,    1.0554
"BUSMVMAI59", 12.505, 1,    7698.74,  -32.1,    1.0663, 2,    7625.43, -152.4,    1.0562, 3,    7617.32,   86.6,     1.055
"BUSMVMAI61", 12.505, 1,    7696.92,  -32.1,    1.0661, 2,    7625.65, -152.4,    1.0562, 3,    7616.32,   86.6,    1.0549
"BUSMVMAI63", 12.505, 1,    7699.89,  -32.1,    1.0665, 2,    7625.27, -152.3,    1.0561, 3,    7617.84,   86.6,    1.0551
"BUSMVMAI874", 12.505, 3,    7617.92,   86.6,    1.0551, 0, 0, 0, 0, 0, 0, 0, 0
"BUSMVMAI62", 12.505, 1,    7695.16,  -32.2,    1.0658, 2,    7625.76, -152.4,    1.0562, 3,    7615.33,   86.6,    1.0548
"BUSMVMAI64", 12.505, 1,    7693.22,  -32.2,    1.0655, 2,    7625.97, -152.4,    1.0562, 3,    7614.59,   86.6,    1.0547
"BUSMVMAI942", 12.505, 3,    7615.32,   86.6,    1.0548, 0, 0, 0, 0, 0, 0, 0, 0
"BUSMVMAI873", 12.505, 3,    7615.31,   86.6,    1.0548, 0, 0, 0, 0, 0, 0, 0, 0
"BUSMVMAI872", 12.505, 3,    7614.91,   86.6,    1.0547, 0, 0, 0, 0, 0, 0, 0, 0
"BUSMVMAI880", 12.505, 3,    7614.91,   86.6,    1.0547, 0, 0, 0, 0, 0, 0, 0, 0
"BUSMVMAI945", 12.505, 3,    7617.83,   86.6,    1.0551, 0, 0, 0, 0, 0, 0, 0, 0
"BUSMVMAI65", 12.505, 1,    7691.16,  -32.2,    1.0653, 2,    7626.13, -152.4,    1.0563, 3,    7613.79,   86.6,    1.0545
"BUSMVMAI66", 12.505, 1,    7689.08,  -32.2,     1.065, 2,     7626.3, -152.4,    1.0563, 3,    7612.98,   86.6,    1.0544
"BUSMVMAI67", 12.505, 1,    7686.83,  -32.2,    1.0647, 2,    7626.47, -152.4,    1.0563, 3,     7612.1,   86.6,    1.0543
"BUSMVMAI878", 12.505, 1,    7686.73,  -32.2,    1.0646, 0, 0, 0, 0, 0, 0, 0, 0
"BUSMVMAI68", 12.505, 1,    7685.17,  -32.2,    1.0644, 2,    7626.56, -152.4,    1.0563, 3,    7611.46,   86.6,    1.0542
"BUSMVMAI706", 12.505, 1,    7686.83,  -32.2,    1.0647, 2,    7626.47, -152.4,    1.0563, 3,     7612.1,   86.6,    1.0543
"BUSMVMAI876", 12.505, 3,    7617.82,   86.6,    1.0551, 0, 0, 0, 0, 0, 0, 0, 0
"BUSMVMAI875", 12.505, 3,    7617.52,   86.6,    1.0551, 0, 0, 0, 0, 0, 0, 0, 0
"BUSMVMAI877", 12.505, 3,    7617.42,   86.6,     1.055, 0, 0, 0, 0, 0, 0, 0, 0
"BUSMVMAI883", 12.505, 3,    7617.18,   86.6,     1.055, 0, 0, 0, 0, 0, 0, 0, 0
"BUSMVMAI884", 12.505, 3,    7617.41,   86.6,     1.055, 0, 0, 0, 0, 0, 0, 0, 0
"BUSMVMAI886", 12.505, 3,    7617.41,   86.6,     1.055, 0, 0, 0, 0, 0, 0, 0, 0
"BUSMVMAI885", 12.505, 1,    7686.58,  -32.2,    1.0646, 0, 0, 0, 0, 0, 0, 0, 0
"BUSMVMAI879", 12.505, 3,    7614.34,   86.6,    1.0546, 0, 0, 0, 0, 0, 0, 0, 0
"BUSMVMAI881", 12.505, 3,    7614.28,   86.6,    1.0546, 0, 0, 0, 0, 0, 0, 0, 0
"BUSMVMAI888", 12.505, 3,    7614.27,   86.6,    1.0546, 0, 0, 0, 0, 0, 0, 0, 0
"BUSMVMAI882", 12.505, 3,    7614.23,   86.6,    1.0546, 0, 0, 0, 0, 0, 0, 0, 0
"BUSMVMAI944", 12.505, 3,    7614.23,   86.6,    1.0546, 0, 0, 0, 0, 0, 0, 0, 0
"BUSMVMAI889", 12.505, 3,    7616.99,   86.6,     1.055, 0, 0, 0, 0, 0, 0, 0, 0
"BUSMVMAI2183", 12.505, 3,    7617.41,   86.6,     1.055, 0, 0, 0, 0, 0, 0, 0, 0
"BUSMVMAI2184", 12.505, 3,    7617.41,   86.6,     1.055, 0, 0, 0, 0, 0, 0, 0, 0
"BUSMVMAI71", 12.505, 1,    7683.54,  -32.2,    1.0642, 2,    7626.61, -152.4,    1.0563, 3,    7610.83,   86.6,    1.0541
"BUSMVMAI2182", 12.505, 1,    7686.57,  -32.2,    1.0646, 0, 0, 0, 0, 0, 0, 0, 0
"BUSMVMAI2185", 12.505, 1,    7686.57,  -32.2,    1.0646, 0, 0, 0, 0, 0, 0, 0, 0
"BUSMVMAI2186", 12.505, 1,    7686.49,  -32.2,    1.0646, 0, 0, 0, 0, 0, 0, 0, 0
"BUSMVMAI887", 12.505, 3,    7617.37,   86.6,     1.055, 0, 0, 0, 0, 0, 0, 0, 0
"BUSMVMAI892", 12.505, 3,    7617.35,   86.6,     1.055, 0, 0, 0, 0, 0, 0, 0, 0
"BUSMVMAI897", 12.505, 3,    7614.17,   86.6,    1.0546, 0, 0, 0, 0, 0, 0, 0, 0
"BUSMVMAI890", 12.505, 3,    7616.83,   86.6,     1.055, 0, 0, 0, 0, 0, 0, 0, 0
"BUSMVMAI891", 12.505, 3,    7616.73,   86.6,    1.0549, 0, 0, 0, 0, 0, 0, 0, 0
"BUSMVMAI896", 12.505, 3,     7616.7,   86.6,    1.0549, 0, 0, 0, 0, 0, 0, 0, 0
"BUSMVMAI893", 12.505, 3,    7617.33,   86.6,     1.055, 0, 0, 0, 0, 0, 0, 0, 0
"BUSMVMAI894", 12.505, 3,    7617.31,   86.6,     1.055, 0, 0, 0, 0, 0, 0, 0, 0
"BUSMVMAI895", 12.505, 3,     7617.3,   86.6,     1.055, 0, 0, 0, 0, 0, 0, 0, 0
"BUSMVMAI898", 12.505, 3,     7617.3,   86.6,     1.055, 0, 0, 0, 0, 0, 0, 0, 0
"BUSMVMAI70", 12.505, 1,    7686.84,  -32.2,    1.0647, 2,    7626.48, -152.4,    1.0563, 3,    7612.05,   86.6,    1.0543
"BUSMVMAI69", 12.505, 1,    7686.84,  -32.2,    1.0647, 2,    7626.48, -152.4,    1.0563, 3,    7612.05,   86.6,    1.0543
"BUSMVMAI708", 12.505, 1,    7686.84,  -32.2,    1.0647, 2,    7626.48, -152.4,    1.0563, 3,    7612.06,   86.6,    1.0543
"BUSMVMAI72", 12.505, 1,    7681.42,  -32.2,    1.0639, 2,    7626.69, -152.4,    1.0563, 3,    7610.01,   86.6,     1.054
"BUSMVMAI73", 12.505, 1,    7679.39,  -32.3,    1.0636, 2,    7626.78, -152.4,    1.0563, 3,    7609.32,   86.6,    1.0539
"BUSMVMAI134", 12.505, 1,    7681.42,  -32.2,    1.0639, 2,    7626.69, -152.4,    1.0563, 3,    7610.01,   86.6,     1.054
"BUSMVMAI900", 12.505, 3,    7614.08,   86.6,    1.0546, 0, 0, 0, 0, 0, 0, 0, 0
"BUSMVMAI904", 12.505, 3,     7617.3,   86.6,     1.055, 0, 0, 0, 0, 0, 0, 0, 0
"BUSMVMAI75", 12.505, 1,    7678.39,  -32.3,    1.0635, 2,    7626.91, -152.4,    1.0564, 3,    7608.97,   86.6,    1.0539
"BUSMVMAI718", 12.505, 1,    7679.39,  -32.3,    1.0636, 2,    7626.78, -152.4,    1.0563, 3,    7609.32,   86.6,    1.0539
"BUSMVMAI899", 12.505, 3,    7614.07,   86.6,    1.0546, 0, 0, 0, 0, 0, 0, 0, 0
"BUSMVMAI902", 12.505, 3,    7614.03,   86.6,    1.0546, 0, 0, 0, 0, 0, 0, 0, 0
"BUSMVMAI901", 12.505, 3,    7613.99,   86.6,    1.0546, 0, 0, 0, 0, 0, 0, 0, 0
"BUSMVMAI903", 12.505, 3,    7613.91,   86.6,    1.0546, 0, 0, 0, 0, 0, 0, 0, 0
"BUSMVMAI905", 12.505, 3,    7613.84,   86.6,    1.0545, 0, 0, 0, 0, 0, 0, 0, 0
"BUSMVMAI907", 12.505, 3,    7613.91,   86.6,    1.0546, 0, 0, 0, 0, 0, 0, 0, 0
"BUSMVMAI906", 12.505, 3,    7613.83,   86.6,    1.0545, 0, 0, 0, 0, 0, 0, 0, 0
"BUSMVMAI946", 12.505, 3,    7613.83,   86.6,    1.0545, 0, 0, 0, 0, 0, 0, 0, 0
"BUSMVMAI74", 12.505, 1,    7678.39,  -32.3,    1.0635, 2,    7626.91, -152.4,    1.0564, 3,    7608.97,   86.6,    1.0539
"BUSMVMAI76", 12.505, 1,    7678.18,  -32.3,    1.0635, 2,    7627.06, -152.4,    1.0564, 3,    7608.88,   86.6,    1.0539
"BUSMVMAI77", 12.505, 1,    7677.84,  -32.3,    1.0634, 2,    7626.88, -152.4,    1.0564, 3,    7608.78,   86.6,    1.0538
"BUSMVMAI79", 12.505, 1,    7678.16,  -32.3,    1.0635, 2,    7627.07, -152.4,    1.0564, 3,    7608.87,   86.6,    1.0539
"BUSMVMAI81", 12.505, 1,    7677.79,  -32.3,    1.0634, 2,    7626.73, -152.4,    1.0563, 3,    7608.86,   86.6,    1.0539
"BUSMVMAI91", 12.505, 1,    7676.43,  -32.3,    1.0632, 2,    7626.96, -152.4,    1.0564, 3,    7608.22,   86.6,    1.0538
"BUSMVMAI78", 12.505, 1,    7677.76,  -32.3,    1.0634, 2,    7627.37, -152.4,    1.0564, 3,    7608.69,   86.6,    1.0538
"BUSMVMAI80", 12.505, 1,    7677.36,  -32.3,    1.0633, 2,    7627.67, -152.4,    1.0565, 3,    7608.51,   86.6,    1.0538
"BUSMVMAI908", 12.505, 1,    7677.16,  -32.3,    1.0633, 0, 0, 0, 0, 0, 0, 0, 0
"BUSMVMAI89", 12.505, 1,    7677.21,  -32.3,    1.0633, 2,    7627.78, -152.4,    1.0565, 3,    7608.43,   86.6,    1.0538
"BUSMVMAI949", 12.505, 3,    7613.91,   86.6,    1.0546, 0, 0, 0, 0, 0, 0, 0, 0
"BUSMVMAI82", 12.505, 1,    7677.75,  -32.3,    1.0634, 2,    7626.61, -152.4,    1.0563, 3,    7608.92,   86.6,    1.0539
"BUSMVMAI83", 12.505, 1,    7677.75,  -32.3,    1.0634, 2,    7626.59, -152.4,    1.0563, 3,    7608.91,   86.6,    1.0539
"BUSMVMAI86", 12.505, 1,    7677.75,  -32.3,    1.0634, 2,    7626.56, -152.4,    1.0563, 3,    7608.91,   86.6,    1.0539
"BUSMVMAI85", 12.505, 1,    7679.38,  -32.3,    1.0636, 2,    7626.65, -152.4,    1.0563, 3,    7609.28,   86.6,    1.0539
"BUSMVMAI84", 12.505, 1,    7679.32,  -32.3,    1.0636, 2,    7626.52, -152.4,    1.0563, 3,    7609.29,   86.6,    1.0539
"BUSMVMAI93", 12.505, 1,    7679.28,  -32.3,    1.0636, 2,    7626.44, -152.4,    1.0563, 3,     7609.3,   86.6,    1.0539
"BUSMVMAI2198", 12.505, 2,    7626.52, -152.4,    1.0563, 0, 0, 0, 0, 0, 0, 0, 0
"BUSMVMAI709", 12.505, 1,    7679.39,  -32.3,    1.0636, 2,    7626.78, -152.4,    1.0563, 3,    7609.32,   86.6,    1.0539
"BUSMVMAI88", 12.505, 1,    7677.75,  -32.3,    1.0634, 2,    7626.54, -152.4,    1.0563, 3,     7608.9,   86.6,    1.0539
"BUSMVMAI87", 12.505, 1,    7677.76,  -32.3,    1.0634, 2,    7626.52, -152.4,    1.0563, 3,    7608.89,   86.6,    1.0539
"BUSMVMAI99", 12.505, 1,    7677.75,  -32.3,    1.0634, 2,     7626.5, -152.4,    1.0563, 3,     7608.9,   86.6,    1.0539
"BUSMVMAI722", 12.505, 1,    7677.76,  -32.3,    1.0634, 2,    7626.52, -152.4,    1.0563, 3,    7608.89,   86.6,    1.0539
"BUSMVMAI909", 12.505, 1,    7676.94,  -32.3,    1.0633, 0, 0, 0, 0, 0, 0, 0, 0
"BUSMVMAI90", 12.505, 1,    7677.11,  -32.3,    1.0633, 2,    7627.86, -152.4,    1.0565, 3,    7608.36,   86.6,    1.0538
"BUSMVMAI102", 12.505, 1,    7676.99,  -32.3,    1.0633, 2,    7627.95, -152.4,    1.0565, 3,    7608.28,   86.6,    1.0538
"BUSMVMAI92", 12.505, 1,    7675.21,  -32.3,     1.063, 2,    7627.03, -152.4,    1.0564, 3,    7607.73,   86.6,    1.0537
"BUSMVMAI132", 12.505, 1,    7676.43,  -32.3,    1.0632, 2,    7626.96, -152.4,    1.0564, 3,    7608.22,   86.6,    1.0538
"BUSMVMAI98", 12.505, 1,    7675.21,  -32.3,     1.063, 2,    7627.03, -152.4,    1.0564, 3,    7607.73,   86.6,    1.0537
"BUSMVMAI100", 12.505, 1,    7673.66,  -32.3,    1.0628, 2,    7627.25, -152.4,    1.0564, 3,    7607.05,   86.6,    1.0536
"BUSMVMAI723", 12.505, 1,    7675.21,  -32.3,     1.063, 2,    7627.02, -152.4,    1.0564, 3,    7607.73,   86.6,    1.0537
"BUSMVMAI96", 12.505, 1,    7679.25,  -32.3,    1.0636, 2,    7626.36, -152.4,    1.0563, 3,     7609.3,   86.6,    1.0539
"BUSMVMAI916", 12.505, 1,    7679.28,  -32.3,    1.0636, 0, 0, 0, 0, 0, 0, 0, 0
"BUSMVMAI95", 12.505, 1,    7675.21,  -32.3,     1.063, 2,    7626.93, -152.4,    1.0564, 3,    7607.74,   86.6,    1.0537
"BUSMVMAI94", 12.505, 1,    7675.18,  -32.3,     1.063, 2,    7626.83, -152.4,    1.0563, 3,    7607.78,   86.6,    1.0537
"BUSMVMAI112", 12.505, 1,    7675.18,  -32.3,     1.063, 2,    7626.83, -152.4,    1.0563, 3,    7607.77,   86.6,    1.0537
"BUSMVMAI126", 12.505, 1,    7675.21,  -32.3,     1.063, 2,    7626.93, -152.4,    1.0564, 3,    7607.74,   86.6,    1.0537
"BUSMVMAI97", 12.505, 1,    7679.21,  -32.3,    1.0636, 2,    7626.25, -152.4,    1.0563, 3,    7609.31,   86.6,    1.0539
"BUSMVMAI711", 12.505, 1,    7679.25,  -32.3,    1.0636, 2,    7626.36, -152.4,    1.0563, 3,     7609.3,   86.6,    1.0539
"BUSMVMAI915", 12.505, 1,     7679.2,  -32.3,    1.0636, 0, 0, 0, 0, 0, 0, 0, 0
...
"BUSLVMAI1", 0.20785, 1,    126.661,   86.6,    1.0555, 2,    126.677,  -93.4,    1.0556, 0, 0, 0, 0
"BUSLVMAI2", 0.20785, 1,    126.451,   86.3,    1.0538, 2,    126.464,  -93.7,    1.0539, 0, 0, 0, 0
"BUSLVMAI3", 0.20785, 1,     126.62,   86.6,    1.0552, 2,    126.636,  -93.4,    1.0553, 0, 0, 0, 0
"BUSLVMAI4", 0.20785, 1,    127.183,  -32.5,    1.0599, 2,    127.422,  147.5,    1.0619, 0, 0, 0, 0
"BUSLVMAI5", 0.20785, 1,    125.343, -152.9,    1.0445, 2,    125.557,   27.2,    1.0463, 0, 0, 0, 0
"BUSLVMAI6", 0.20785, 1,    126.436,   86.2,    1.0536, 2,    126.451,  -93.8,    1.0538, 0, 0, 0, 0
"BUSLVMAI7", 0.20785, 1,    126.665,   86.6,    1.0555, 2,    126.679,  -93.4,    1.0557, 0, 0, 0, 0
"BUSLVMAI8", 0.20785, 1,    125.338,   86.1,    1.0445, 2,    125.355,  -93.9,    1.0446, 0, 0, 0, 0
"BUSLVMAI9", 0.20785, 1,    125.691,   85.7,    1.0474, 2,    125.704,  -94.3,    1.0475, 0, 0, 0, 0
"BUSLVMAI10", 0.20785, 1,    125.834,   85.8,    1.0486, 2,    125.847,  -94.2,    1.0487, 0, 0, 0, 0
"BUSLVMAI11", 0.20785, 1,     126.54, -152.4,    1.0545, 2,    126.553,   27.6,    1.0546, 0, 0, 0, 0
"BUSLVMAI12", 0.20785, 1,    126.436, -152.5,    1.0536, 2,    126.452,   27.5,    1.0538, 0, 0, 0, 0
"BUSLVMAI13", 0.20785, 1,    128.015,  -32.1,    1.0668, 2,     128.03,  147.9,    1.0669, 0, 0, 0, 0
"BUSLVMAI14", 0.20785, 1,    127.959,  -32.2,    1.0663, 2,    127.975,  147.8,    1.0665, 0, 0, 0, 0
"BUSLVMAI15", 0.20785, 1,    127.966,  -32.1,    1.0664, 2,     127.98,  147.9,    1.0665, 0, 0, 0, 0
"BUSLVMAI16", 0.20785, 1,    126.624,   86.6,    1.0552, 2,    126.642,  -93.4,    1.0554, 0, 0, 0, 0
"BUSLVMAI17", 0.20785, 1,    124.874,   85.6,    1.0406, 2,    124.968,  -94.4,    1.0414, 0, 0, 0, 0
"BUSLVMAI18", 0.20785, 1,    126.513,   86.4,    1.0543, 2,    126.528,  -93.6,    1.0544, 0, 0, 0, 0
"BUSLVMAI19", 0.20785, 1,    126.528,   86.5,    1.0544, 2,    126.541,  -93.5,    1.0545, 0, 0, 0, 0
"BUSLVMAI20", 0.20785, 1,    126.053, -152.5,    1.0504, 2,    126.091,   27.5,    1.0508, 0, 0, 0, 0
"BUSLVMAI21", 0.20785, 1,    126.662,   86.6,    1.0555, 2,    126.678,  -93.4,    1.0556, 0, 0, 0, 0
"BUSLVMAI22", 0.20785, 1,    127.573,  -32.3,    1.0631, 2,    127.775,  147.7,    1.0648, 0, 0, 0, 0
"BUSLVMAI23", 0.20785, 1,    126.573,   86.6,    1.0548, 2,    126.588,  -93.5,    1.0549, 0, 0, 0, 0
"BUSLVMAI24", 0.20785, 1,    126.591,   86.6,    1.0549, 2,    126.607,  -93.4,    1.0551, 0, 0, 0, 0
"BUSLVMAI25", 0.20785, 1,    126.475,   86.5,     1.054, 2,    126.491,  -93.5,    1.0541, 0, 0, 0, 0
"BUSLVMAI26", 0.20785, 1,    126.498, -152.4,    1.0541, 2,    126.513,   27.6,    1.0543, 0, 0, 0, 0
"BUSLVMAI27", 0.20785, 1,    126.576, -152.4,    1.0548, 2,    126.592,   27.6,    1.0549, 0, 0, 0, 0
"BUSLVMAI28", 0.20785, 1,    126.513,   86.4,    1.0543, 2,    126.528,  -93.6,    1.0544, 0, 0, 0, 0
"BUSLVMAI29", 0.20785, 1,     125.72,   85.7,    1.0477, 2,    125.735,  -94.4,    1.0478, 0, 0, 0, 0
"BUSLVMAI30", 0.20785, 1,    126.128, -152.5,    1.0511, 2,    126.142,   27.5,    1.0512, 0, 0, 0, 0
"BUSLVMAI31", 0.20785, 1,    126.622,   86.6,    1.0552, 2,    126.638,  -93.4,    1.0553, 0, 0, 0, 0
"BUSLVMAI32", 0.20785, 1,    127.656,  -32.2,    1.0638, 2,    127.669,  147.8,    1.0639, 0, 0, 0, 0
"BUSLVMAI33", 0.20785, 1,    126.472,   86.3,    1.0539, 2,    126.485,  -93.7,     1.054, 0, 0, 0, 0
"BUSLVMAI34", 0.20785, 1,    124.943,   86.2,    1.0412, 2,     125.09,  -93.8,    1.0424, 0, 0, 0, 0
"BUSLVMAI35", 0.20785, 1,    126.517,   86.6,    1.0543, 2,    126.531,  -93.4,    1.0544, 0, 0, 0, 0
"BUSLVMAI36", 0.20785, 1,    126.514,   86.6,    1.0543, 2,    126.528,  -93.4,    1.0544, 0, 0, 0, 0
"BUSLVMAI37", 0.20785, 1,    126.511,   86.5,    1.0543, 2,    126.526,  -93.5,    1.0544, 0, 0, 0, 0
"BUSLVMAI38", 0.20785, 1,    122.208, -153.4,    1.0184, 2,    122.225,   26.5,    1.0185, 0, 0, 0, 0
"BUSLVMAI39", 0.20785, 1,    126.335, -152.6,    1.0528, 2,    126.348,   27.4,    1.0529, 0, 0, 0, 0
"BUSLVMAI40", 0.20785, 1,    126.036,   86.3,    1.0503, 2,    126.093,  -93.7,    1.0508, 0, 0, 0, 0
"BUSLVMAI41", 0.20785, 1,    127.569,  -32.3,    1.0631, 2,    127.584,  147.7,    1.0632, 0, 0, 0, 0
"BUSLVMAI42", 0.20785, 1,    127.587,  -32.3,    1.0632, 2,    127.603,  147.7,    1.0634, 0, 0, 0, 0
"BUSLVMAI43", 0.20785, 1,    127.656,  -32.2,    1.0638, 2,    127.672,  147.8,    1.0639, 0, 0, 0, 0
"BUSLVMAI44", 0.20785, 1,    126.286,   86.5,    1.0524, 2,     126.35,  -93.5,    1.0529, 0, 0, 0, 0
"BUSLVMAI45", 0.20785, 1,    126.265,   86.5,    1.0522, 2,    126.279,  -93.5,    1.0523, 0, 0, 0, 0
"BUSLVMAI46", 0.20785, 1,    126.431,   86.6,    1.0536, 2,    126.447,  -93.4,    1.0537, 0, 0, 0, 0
"BUSLVMAI47", 0.20785, 1,     126.52,   86.6,    1.0543, 2,    126.534,  -93.4,    1.0545, 0, 0, 0, 0
"BUSLVMAI48", 0.20785, 1,    125.661,   86.2,    1.0472, 2,    125.701,  -93.8,    1.0475, 0, 0, 0, 0
"BUSLVMAI49", 0.20785, 1,    127.594,  -32.3,    1.0633, 2,     127.61,  147.7,    1.0634, 0, 0, 0, 0
"BUSLVMAI50", 0.20785, 1,    124.207, -153.2,    1.0351, 2,    124.676,   26.9,     1.039, 0, 0, 0, 0
"BUSLVMAI51", 0.20785, 1,     126.13,  -32.8,    1.0511, 2,    126.146,  147.2,    1.0512, 0, 0, 0, 0
"BUSLVMAI52", 0.20785, 1,    126.532,   86.6,    1.0544, 2,    126.545,  -93.4,    1.0545, 0, 0, 0, 0
"BUSLVMAI53", 0.20785, 1,    126.511,   86.6,    1.0543, 2,    126.526,  -93.4,    1.0544, 0, 0, 0, 0
"BUSLVMAI54", 0.20785, 1,    125.414,   86.2,    1.0451, 2,     125.43,  -93.8,    1.0453, 0, 0, 0, 0
"BUSLVMAI55", 0.20785, 1,    127.656,  -32.2,    1.0638, 2,    127.672,  147.8,    1.0639, 0, 0, 0, 0
"BUSLVMAI56", 0.20785, 1,    125.933,   86.3,    1.0494, 2,    125.946,  -93.7,    1.0495, 0, 0, 0, 0
"BUSLVMAI57", 0.20785, 1,    126.405,   86.6,    1.0534, 2,    126.421,  -93.4,    1.0535, 0, 0, 0, 0
"BUSLVMAI58", 0.20785, 1,    126.531,   86.6,    1.0544, 2,    126.545,  -93.4,    1.0545, 0, 0, 0, 0
"BUSLVMAI59", 0.20785, 1,    127.594,  -32.3,    1.0633, 2,     127.61,  147.7,    1.0634, 0, 0, 0, 0
"BUSLVMAI60", 0.20785, 1,    127.583,  -32.3,    1.0632, 2,    127.596,  147.7,    1.0633, 0, 0, 0, 0
"BUSLVMAI61", 0.20785, 1,    125.852,  -33.1,    1.0488, 2,    125.869,  146.9,    1.0489, 0, 0, 0, 0
"BUSLVMAI62", 0.20785, 1,    126.494, -152.5,    1.0541, 2,    126.508,   27.5,    1.0542, 0, 0, 0, 0
"BUSLVMAI63", 0.20785, 1,    127.247,  -32.4,    1.0604, 2,    127.289,  147.6,    1.0607, 0, 0, 0, 0
"BUSLVMAI64", 0.20785, 1,    126.581, -152.5,    1.0548, 2,    126.594,   27.5,    1.0549, 0, 0, 0, 0
"BUSLVMAI65", 0.20785, 1,    127.559,  -32.3,     1.063, 2,    127.573,  147.7,    1.0631, 0, 0, 0, 0
"BUSLVMAI66", 0.20785, 1,    126.515,   86.6,    1.0543, 2,    126.529,  -93.4,    1.0544, 0, 0, 0, 0
"BUSLVMAI67", 0.20785, 1,    127.259,  -32.4,    1.0605, 2,    127.275,  147.6,    1.0606, 0, 0, 0, 0
"BUSLVMAI68", 0.20785, 1,    126.988,  -32.6,    1.0582, 2,    127.001,  147.4,    1.0583, 0, 0, 0, 0
"BUSLVMAI69", 0.20785, 1,     126.52,   86.6,    1.0543, 2,    126.533,  -93.4,    1.0544, 0, 0, 0, 0
"BUSLVMAI70", 0.20785, 1,    126.087,   86.3,    1.0507, 2,    126.109,  -93.7,    1.0509, 0, 0, 0, 0
"BUSLVMAI71", 0.20785, 1,    126.156,  -32.9,    1.0513, 2,     126.17,  147.1,    1.0514, 0, 0, 0, 0
"BUSLVMAI72", 0.20785, 1,    127.427,  -32.3,    1.0619, 2,     127.44,  147.6,     1.062, 0, 0, 0, 0
"BUSLVMAI73", 0.20785, 1,    127.425,  -32.3,    1.0619, 2,    127.438,  147.6,     1.062, 0, 0, 0, 0
"BUSLVMAI74", 0.20785, 1,    127.593,  -32.3,    1.0633, 2,    127.608,  147.7,    1.0634, 0, 0, 0, 0
"BUSLVMAI75", 0.20785, 1,    126.194, -152.6,    1.0516, 2,    126.208,   27.4,    1.0517, 0, 0, 0, 0
"BUSLVMAI76", 0.20785, 1,    126.514,   86.6,    1.0543, 2,    126.527,  -93.4,    1.0544, 0, 0, 0, 0
"BUSLVMAI77", 0.20785, 1,    127.168,  -32.4,    1.0597, 2,    127.182,  147.6,    1.0598, 0, 0, 0, 0
"BUSLVMAI78", 0.20785, 1,    127.499,  -32.3,    1.0625, 2,    127.512,  147.7,    1.0626, 0, 0, 0, 0
"BUSLVMAI79", 0.20785, 1,    126.412,   86.6,    1.0534, 2,    126.426,  -93.4,    1.0536, 0, 0, 0, 0
"BUSLVMAI80", 0.20785, 1,    125.043,   85.9,     1.042, 2,    125.093,  -94.1,    1.0424, 0, 0, 0, 0
"BUSLVMAI81", 0.20785, 1,    126.514,   86.6,    1.0543, 2,    126.528,  -93.4,    1.0544, 0, 0, 0, 0
"BUSLVMAI82", 0.20785, 1,    126.241,   86.5,     1.052, 2,    126.257,  -93.5,    1.0521, 0, 0, 0, 0
"BUSLVMAI83", 0.20785, 1,    126.913,  -32.6,    1.0576, 2,     126.97,  147.4,    1.0581, 0, 0, 0, 0
"BUSLVMAI84", 0.20785, 1,    126.307,   86.5,    1.0526, 2,    126.321,  -93.5,    1.0527, 0, 0, 0, 0
"BUSLVMAI85", 0.20785, 1,      126.6, -152.5,     1.055, 2,    126.627,   27.5,    1.0552, 0, 0, 0, 0
"BUSLVMAI86", 0.20785, 1,    127.163,  -32.4,    1.0597, 2,    127.227,  147.6,    1.0602, 0, 0, 0, 0
"BUSLVMAI87", 0.20785, 1,    127.547,  -32.3,    1.0629, 2,     127.58,  147.7,    1.0632, 0, 0, 0, 0
"BUSLVMAI88", 0.20785, 1,    126.572,   86.6,    1.0548, 2,    126.585,  -93.4,    1.0549, 0, 0, 0, 0
"BUSLVMAI89", 0.20785, 1,    126.514,   86.6,    1.0543, 2,    126.527,  -93.4,    1.0544, 0, 0, 0, 0
"BUSLVMAI90", 0.20785, 1,    126.063,   86.4,    1.0505, 2,    126.079,  -93.6,    1.0507, 0, 0, 0, 0
"BUSLVMAI91", 0.20785, 1,    126.549,   86.6,    1.0546, 2,    126.564,  -93.4,    1.0547, 0, 0, 0, 0
"BUSLVMAI92", 0.20785, 1,    127.262,  -32.4,    1.0605, 2,    127.276,  147.6,    1.0606, 0, 0, 0, 0
"BUSLVMAI93", 0.20785, 1,    126.282,   86.5,    1.0524, 2,    126.298,  -93.5,    1.0525, 0, 0, 0, 0
"BUSLVMAI94", 0.20785, 1,    126.072,   86.4,    1.0506, 2,    126.086,  -93.7,    1.0507, 0, 0, 0, 0
"BUSLVMAI95", 0.20785, 1,    126.405,   86.6,    1.0534, 2,    126.421,  -93.4,    1.0535, 0, 0, 0, 0
"BUSLVMAI96", 0.20785, 1,    126.467,   86.5,    1.0539, 2,    126.481,  -93.5,     1.054, 0, 0, 0, 0
"BUSLVMAI97", 0.20785, 1,    126.717, -152.4,     1.056, 2,    126.733,   27.6,    1.0561, 0, 0, 0, 0
"BUSLVMAI98", 0.20785, 1,    126.717, -152.4,     1.056, 2,    126.733,   27.6,    1.0561, 0, 0, 0, 0
"BUSLVMAI99", 0.20785, 1,    126.469,   86.5,    1.0539, 2,    126.483,  -93.5,     1.054, 0, 0, 0, 0
"BUSLVMAI100", 0.20785, 1,    126.533,   86.5,    1.0544, 2,    126.547,  -93.5,    1.0546, 0, 0, 0, 0
"BUSLVMAI101", 0.20785, 1,    126.403,   86.6,    1.0534, 2,    126.419,  -93.4,    1.0535, 0, 0, 0, 0
"BUSLVMAI102", 0.20785, 1,    126.513,   86.6,    1.0543, 2,    126.529,  -93.4,    1.0544, 0, 0, 0, 0
"BUSLVMAI103", 0.20785, 1,    126.318,   86.5,    1.0526, 2,    126.333,  -93.5,    1.0528, 0, 0, 0, 0
"BUSLVMAI104", 0.20785, 1,    126.374,   86.6,    1.0531, 2,    126.388,  -93.4,    1.0532, 0, 0, 0, 0
"BUSLVMAI105", 0.20785, 1,    126.272,   86.5,    1.0523, 2,    126.286,  -93.5,    1.0524, 0, 0, 0, 0
"BUSLVMAI106", 0.20785, 1,    127.534,  -32.3,    1.0628, 2,    127.547,  147.7,    1.0629, 0, 0, 0, 0
"BUSLVMAI107", 0.20785, 1,    126.519,   86.6,    1.0543, 2,    126.533,  -93.4,    1.0544, 0, 0, 0, 0
"BUSLVMAI108", 0.20785, 1,    126.419,   86.6,    1.0535, 2,    126.434,  -93.4,    1.0536, 0, 0, 0, 0
"BUSLVMAI109", 0.20785, 1,    126.677,  -32.6,    1.0556, 2,    126.733,  147.4,    1.0561, 0, 0, 0, 0
"BUSLVMAI110", 0.20785, 1,    127.028,  -32.5,    1.0586, 2,    127.042,  147.5,    1.0587, 0, 0, 0, 0
"BUSLVMAI111", 0.20785, 1,     127.23,  -32.4,    1.0603, 2,    127.246,  147.6,    1.0604, 0, 0, 0, 0
"BUSLVMAI112", 0.20785, 1,    127.414,  -32.3,    1.0618, 2,     127.43,  147.7,    1.0619, 0, 0, 0, 0
"BUSLVMAI113", 0.20785, 1,    126.653, -152.4,    1.0554, 2,    126.668,   27.6,    1.0556, 0, 0, 0, 0
"BUSLVMAI114", 0.20785, 1,    126.141,  -32.8,    1.0512, 2,    126.156,  147.2,    1.0513, 0, 0, 0, 0
"BUSLVMAI115", 0.20785, 1,    127.231,  -32.4,    1.0603, 2,    127.244,  147.6,    1.0604, 0, 0, 0, 0
"BUSLVMAI116", 0.20785, 1,     126.35,   86.6,    1.0529, 2,    126.363,  -93.4,     1.053, 0, 0, 0, 0
"BUSLVMAI117", 0.20785, 1,    126.671,  -32.7,    1.0556, 2,    126.709,  147.3,    1.0559, 0, 0, 0, 0
"BUSLVMAI118", 0.20785, 1,     126.95,  -32.5,    1.0579, 2,    126.966,  147.5,     1.058, 0, 0, 0, 0
"BUSLVMAI119", 0.20785, 1,    125.982,   86.4,    1.0498, 2,    125.995,  -93.6,      1.05, 0, 0, 0, 0
"BUSLVMAI120", 0.20785, 1,    127.229,  -32.4,    1.0602, 2,    127.243,  147.6,    1.0604, 0, 0, 0, 0
"BUSLVMAI121", 0.20785, 1,    126.775, -152.4,    1.0565, 2,    126.791,   27.6,    1.0566, 0, 0, 0, 0
"BUSLVMAI122", 0.20785, 1,    126.334,   86.6,    1.0528, 2,     126.35,  -93.4,    1.0529, 0, 0, 0, 0
"BUSLVMAI123", 0.20785, 1,    126.771, -152.4,    1.0564, 2,    126.785,   27.6,    1.0565, 0, 0, 0, 0
"BUSLVMAI124", 0.20785, 1,    125.686,   86.3,    1.0474, 2,     125.75,  -93.7,    1.0479, 0, 0, 0, 0
"BUSLVMAI125", 0.20785, 1,    125.765,   86.4,     1.048, 2,    125.821,  -93.6,    1.0485, 0, 0, 0, 0
"BUSLVMAI126", 0.20785, 1,    126.782, -152.4,    1.0565, 2,    126.796,   27.6,    1.0566, 0, 0, 0, 0
"BUSLVMAI127", 0.20785, 1,    126.334,   86.6,    1.0528, 2,    126.348,  -93.4,    1.0529, 0, 0, 0, 0
"BUSLVMAI128", 0.20785, 1,    125.455, -153.0,    1.0455, 2,    125.476,   27.0,    1.0456, 0, 0, 0, 0
"BUSLVMAI129", 0.20785, 1,    127.229,  -32.4,    1.0602, 2,    127.243,  147.6,    1.0604, 0, 0, 0, 0
"BUSLVMAI130", 0.20785, 1,    127.396,  -32.4,    1.0616, 2,    127.411,  147.6,    1.0618, 0, 0, 0, 0
"BUSLVMAI131", 0.20785, 1,    126.178,  -32.8,    1.0515, 2,    126.202,  147.2,    1.0517, 0, 0, 0, 0
"BUSLVMAI132", 0.20785, 1,    127.226,  -32.4,    1.0602, 2,    127.239,  147.6,    1.0603, 0, 0, 0, 0
"BUSLVMAI133", 0.20785, 1,    126.367,   86.6,    1.0531, 2,    126.385,  -93.4,    1.0532, 0, 0, 0, 0
"BUSLVMAI134", 0.20785, 1,    126.065,   86.4,    1.0505, 2,    126.117,  -93.6,     1.051, 0, 0, 0, 0
"BUSLVMAI135", 0.20785, 1,    126.308,   86.5,    1.0526, 2,    126.323,  -93.5,    1.0527, 0, 0, 0, 0
"BUSLVMAI136", 0.20785, 1,    126.493,  -32.8,    1.0541, 2,    126.531,  147.2,    1.0544, 0, 0, 0, 0
"BUSLVMAI137", 0.20785, 1,    126.163, -152.7,    1.0514, 2,    126.176,   27.3,    1.0515, 0, 0, 0, 0
"BUSLVMAI138", 0.20785, 1,    126.509, -152.5,    1.0542, 2,     126.53,   27.5,    1.0544, 0, 0, 0, 0
"BUSLVMAI139", 0.20785, 1,    125.913, -152.8,    1.0493, 2,    125.931,   27.2,    1.0494, 0, 0, 0, 0
"BUSLVMAI140", 0.20785, 1,    126.947,  -32.5,    1.0579, 2,    126.963,  147.5,     1.058, 0, 0, 0, 0
"BUSLVMAI141", 0.20785, 1,    126.782, -152.4,    1.0565, 2,    126.796,   27.6,    1.0566, 0, 0, 0, 0
"BUSLVMAI142", 0.20785, 1,    126.488, -152.5,    1.0541, 2,    126.502,   27.5,    1.0542, 0, 0, 0, 0
"BUSLVMAI143", 0.20785, 1,    126.627, -152.5,    1.0552, 2,    126.642,   27.5,    1.0554, 0, 0, 0, 0
"BUSLVMAI144", 0.20785, 1,    126.337,   86.6,    1.0528, 2,    126.352,  -93.4,    1.0529, 0, 0, 0, 0
"BUSLVMAI145", 0.20785, 1,    127.381,  -32.4,    1.0615, 2,    127.396,  147.6,    1.0616, 0, 0, 0, 0
"BUSLVMAI146", 0.20785, 1,    126.761, -152.4,    1.0563, 2,    126.775,   27.6,    1.0565, 0, 0, 0, 0
"BUSLVMAI147", 0.20785, 1,    126.409,  -32.8,    1.0534, 2,    126.457,  147.2,    1.0538, 0, 0, 0, 0
"BUSLVMAI148", 0.20785, 1,    126.279,   86.6,    1.0523, 2,    126.294,  -93.4,    1.0524, 0, 0, 0, 0
"BUSLVMAI149", 0.20785, 1,    126.402, -152.6,    1.0534, 2,    126.415,   27.4,    1.0535, 0, 0, 0, 0
"BUSLVMAI150", 0.20785, 1,    126.467,  -32.8,    1.0539, 2,    126.489,  147.2,    1.0541, 0, 0, 0, 0
"BUSLVMAI151", 0.20785, 1,    126.139, -152.6,    1.0512, 2,    126.152,   27.4,    1.0513, 0, 0, 0, 0
"BUSLVMAI152", 0.20785, 1,    127.218,  -32.4,    1.0602, 2,    127.234,  147.6,    1.0603, 0, 0, 0, 0
"BUSLVMAI153", 0.20785, 1,    125.481,   86.3,    1.0457, 2,    125.497,  -93.7,    1.0458, 0, 0, 0, 0
"BUSLVMAI154", 0.20785, 1,    126.357,   86.6,     1.053, 2,    126.373,  -93.4,    1.0531, 0, 0, 0, 0
"BUSLVMAI155", 0.20785, 1,    126.735,  -32.7,    1.0561, 2,    126.749,  147.3,    1.0562, 0, 0, 0, 0
"BUSLVMAI156", 0.20785, 1,    127.228,  -32.4,    1.0602, 2,    127.241,  147.6,    1.0603, 0, 0, 0, 0
"BUSLVMAI157", 0.20785, 1,    126.359,  -32.7,     1.053, 2,    126.375,  147.3,    1.0531, 0, 0, 0, 0
"BUSLVMAI158", 0.20785, 1,    126.726, -152.5,    1.0561, 2,    126.739,   27.5,    1.0562, 0, 0, 0, 0
"BUSLVMAI159", 0.20785, 1,     126.68, -152.4,    1.0557, 2,    126.693,   27.6,    1.0558, 0, 0, 0, 0
"BUSLVMAI160", 0.20785, 1,     127.05,  -32.5,    1.0587, 2,    127.068,  147.5,    1.0589, 0, 0, 0, 0
"BUSLVMAI161", 0.20785, 1,    126.902,  -32.6,    1.0575, 2,    126.925,  147.4,    1.0577, 0, 0, 0, 0
"BUSLVMAI162", 0.20785, 1,    127.011,  -32.5,    1.0584, 2,    127.027,  147.5,    1.0586, 0, 0, 0, 0
"BUSLVMAI163", 0.20785, 1,    127.218,  -32.4,    1.0602, 2,    127.234,  147.6,    1.0603, 0, 0, 0, 0
"BUSLVMAI164", 0.20785, 1,    127.498,  -32.3,    1.0625, 2,    127.511,  147.7,    1.0626, 0, 0, 0, 0
"BUSLVMAI165", 0.20785, 1,    126.603,  -32.6,     1.055, 2,    126.637,  147.4,    1.0553, 0, 0, 0, 0
"BUSLVMAI166", 0.20785, 1,    126.861,  -32.6,    1.0572, 2,    126.884,  147.4,    1.0574, 0, 0, 0, 0
"BUSLVMAI167", 0.20785, 1,    125.952,   86.4,    1.0496, 2,    125.983,  -93.6,    1.0499, 0, 0, 0, 0
"BUSLVMAI168", 0.20785, 1,     126.02,   86.5,    1.0502, 2,    126.034,  -93.6,    1.0503, 0, 0, 0, 0
"BUSLVMAI169", 0.20785, 1,    125.077,  -32.8,    1.0423, 2,    125.095,  147.1,    1.0425, 0, 0, 0, 0
"BUSLVMAI170", 0.20785, 1,    127.209,  -32.4,    1.0601, 2,    127.224,  147.6,    1.0602, 0, 0, 0, 0
"BUSLVMAI171", 0.20785, 1,    126.685,  -32.6,    1.0557, 2,    126.767,  147.4,    1.0564, 0, 0, 0, 0
"BUSLVMAI172", 0.20785, 1,    125.863,   86.3,    1.0489, 2,    125.877,  -93.7,     1.049, 0, 0, 0, 0
"BUSLVMAI173", 0.20785, 1,    126.332,   86.6,    1.0528, 2,    126.348,  -93.4,    1.0529, 0, 0, 0, 0
"BUSLVMAI174", 0.20785, 1,    126.947,  -32.5,    1.0579, 2,    126.969,  147.5,    1.0581, 0, 0, 0, 0
"BUSLVMAI175", 0.20785, 1,    125.942,  -33.0,    1.0495, 2,    125.956,  147.0,    1.0496, 0, 0, 0, 0
"BUSLVMAI176", 0.20785, 1,    126.249,   86.6,    1.0521, 2,    126.262,  -93.4,    1.0522, 0, 0, 0, 0
"BUSLVMAI177", 0.20785, 1,    126.256,   86.5,    1.0521, 2,    126.268,  -93.5,    1.0522, 0, 0, 0, 0
"BUSLVMAI178", 0.20785, 1,    126.715, -152.5,     1.056, 2,    126.728,   27.5,    1.0561, 0, 0, 0, 0
"BUSLVMAI179", 0.20785, 1,    126.353, -152.6,    1.0529, 2,    126.366,   27.4,     1.053, 0, 0, 0, 0
"BUSLVMAI180", 0.20785, 1,    127.228,  -32.4,    1.0602, 2,    127.241,  147.6,    1.0603, 0, 0, 0, 0
"BUSLVMAI181", 0.20785, 1,    127.206,  -32.4,    1.0601, 2,     127.22,  147.6,    1.0602, 0, 0, 0, 0
"BUSLVMAI182", 0.20785, 1,    125.903,  -33.0,    1.0492, 2,    126.003,  147.0,      1.05, 0, 0, 0, 0
"BUSLVMAI183", 0.20785, 1,    125.983,   86.4,    1.0499, 2,    125.997,  -93.6,      1.05, 0, 0, 0, 0
"BUSLVMAI184", 0.20785, 1,    127.459,  -32.3,    1.0622, 2,    127.472,  147.7,    1.0623, 0, 0, 0, 0
"BUSLVMAI185", 0.20785, 1,    126.193, -152.6,    1.0516, 2,    126.206,   27.3,    1.0517, 0, 0, 0, 0
"BUSLVMAI186", 0.20785, 1,    126.364,   86.6,     1.053, 2,     126.38,  -93.4,    1.0532, 0, 0, 0, 0
"BUSLVMAI187", 0.20785, 1,    126.214,   86.5,    1.0518, 2,    126.227,  -93.5,    1.0519, 0, 0, 0, 0
"BUSLVMAI188", 0.20785, 1,    126.703, -152.4,    1.0559, 2,    126.718,   27.6,     1.056, 0, 0, 0, 0
"BUSLVMAI189", 0.20785, 1,    127.223,  -32.4,    1.0602, 2,    127.239,  147.6,    1.0603, 0, 0, 0, 0
"BUSLVMAI190", 0.20785, 1,    126.688, -152.4,    1.0557, 2,    126.704,   27.6,    1.0559, 0, 0, 0, 0
"BUSLVMAI191", 0.20785, 1,    126.357,   86.6,     1.053, 2,    126.373,  -93.4,    1.0531, 0, 0, 0, 0
"BUSLVMAI192", 0.20785, 1,    127.203,  -32.4,      1.06, 2,    127.219,  147.6,    1.0602, 0, 0, 0, 0
"BUSLVMAI193", 0.20785, 1,    127.215,  -32.4,    1.0601, 2,    127.231,  147.6,    1.0603, 0, 0, 0, 0
"BUSLVMAI194", 0.20785, 1,    126.217,   86.5,    1.0518, 2,    126.232,  -93.5,    1.0519, 0, 0, 0, 0
"BUSLVMAI195", 0.20785, 1,    126.359,   86.6,     1.053, 2,    126.374,  -93.4,    1.0531, 0, 0, 0, 0
"BUSLVMAI196", 0.20785, 1,    126.651, -152.4,    1.0554, 2,    126.666,   27.6,    1.0556, 0, 0, 0, 0
"BUSLVMAI197", 0.20785, 1,    126.528, -152.5,    1.0544, 2,    126.542,   27.5,    1.0545, 0, 0, 0, 0
"BUSLVMAI198", 0.20785, 1,     126.65, -152.4,    1.0554, 2,    126.665,   27.6,    1.0555, 0, 0, 0, 0
"BUSLVMAI199", 0.20785, 1,    126.651, -152.4,    1.0554, 2,    126.666,   27.6,    1.0556, 0, 0, 0, 0
"BUSLVMAI200", 0.20785, 1,    127.204,  -32.4,      1.06, 2,    127.219,  147.6,    1.0602, 0, 0, 0, 0
...
